Circuit: * Z:\home\miceuz\Xaltura\laser-maze\gysteresis.asc

Direct Newton iteration for .op point succeeded.

Date: Sat Mar 05 21:56:49 2016
Total elapsed time: 0.065 seconds.

tnom = 27
temp = 27
method = modified trap
totiter = 5837
traniter = 5827
tranpoints = 1744
accept = 1550
rejected = 194
matrix size = 18
fillins = 9
solver = Normal
Matrix Compiler1: 1,11 KB object code size  0.7/0.5/[0.3]
Matrix Compiler2: off  [0.4]/0.5/0.5


